7
Coordinates from ORCA-job OPT_E E -116.383204275979
  C      -8.525300      2.916630      1.933100
  C      -7.408360      3.364680      2.002570
  C      -6.052770      3.908800      2.087440
  H      -9.506010      2.523440      1.872490
  H      -6.015450      4.891310      1.573450
  H      -5.341970      3.209770      1.600570
  H      -5.772250      4.038370      3.153000
7
Coordinates from ORCA-job OPT_E E -116.384305419135
  C      -8.520345      2.918673      1.933422
  C      -7.408170      3.364825      2.002651
  C      -6.058110      3.906698      2.087105
  H      -9.505623      2.523504      1.872458
  H      -6.008439      4.871751      1.585780
  H      -5.350606      3.229056      1.612328
  H      -5.770818      4.038493      3.128876
7
Coordinates from ORCA-job OPT_E E -116.384374847682
  C      -8.521687      2.918189      1.933351
  C      -7.410068      3.364116      2.002585
  C      -6.062049      3.905135      2.086852
  H      -9.506630      2.523019      1.872355
  H      -6.004910      4.870703      1.587296
  H      -5.348863      3.232250      1.613797
  H      -5.767903      4.039588      3.126384
7
Coordinates from ORCA-job OPT_E E -116.384403207321
  C      -8.523683      2.917486      1.933247
  C      -7.411968      3.363442      2.002539
  C      -6.066224      3.903475      2.086581
  H      -9.508417      2.522163      1.872188
  H      -6.001062      4.870589      1.588405
  H      -5.346275      3.234943      1.614868
  H      -5.764481      4.040901      3.124793
7
Coordinates from ORCA-job OPT_E E -116.384403242042
  C      -8.523777      2.917488      1.933246
  C      -7.411987      3.363466      2.002552
  C      -6.066284      3.903450      2.086576
  H      -9.508459      2.522095      1.872173
  H      -6.000971      4.870610      1.588418
  H      -5.346229      3.234961      1.614871
  H      -5.764404      4.040931      3.124784
