22
 energy: -27.433998302464 gnorm: 0.000708821424 xtb: 6.5.1 (579679a)
C           -3.71949429967349        0.59346044382107        0.73433235482489
C           -3.39071064575164        0.96080028540798       -0.67411086001340
C           -2.12360930157069        1.38664088268189       -0.74074215637577
C           -1.53646313776849        1.34154290113354        0.58125887386280
C           -2.44511849133776        0.88605709857223        1.45298400299986
H           -3.99386687446880       -0.46017460041406        0.81728308937521
H           -4.55445093033264        1.17756705226258        1.12710167105607
H           -4.09505555948557        0.87404266593121       -1.48064839473378
H           -1.59729375685556        1.71571841852066       -1.61853227742938
H           -0.52483326552036        1.63692683009370        0.79679962990035
H           -2.32301851495606        0.73718223244103        2.51064083113268
C           -2.50931021910286       -2.54400394932897       -0.80374726243047
C           -2.01809710604122       -2.66674736942274        0.43589258719929
C           -0.62038815442208       -2.14472703896049        0.46970128802511
C           -0.39720968755516       -1.71923020234752       -0.94288451591666
C           -1.50246204376320       -1.95493427333549       -1.66025587364685
H           -3.48966261751791       -2.82954493384941       -1.14177541687482
H           -2.51337989546924       -3.06899230069173        1.30155339733743
H            0.09505229700701       -2.90614287634707        0.78846094502871
H           -0.52592480169138       -1.30187911754053        1.15786459100873
H            0.52527972089316       -1.28778997398762       -1.28473813539039
H           -1.65074271461597       -1.75039217464026       -2.70544836893985
22
 energy: -27.500042577850 gnorm: 0.000426753674 xtb: 6.5.1 (579679a)
C           -3.75465935295868        0.20470761834710        0.66943402102467
C           -3.25464697695117        0.08921566872602       -0.77475387023240
C           -2.08444987786276        1.03639308743216       -0.73073255062603
C           -1.55558482973825        0.95898012449356        0.48268997182729
C           -2.36460559921347       -0.03896322151618        1.27077663726449
H           -4.48732634413732       -0.55436981867595        0.94079831068370
H           -4.14775047386256        1.19413372671375        0.90103641460250
H           -3.97604607533832        0.25166863987742       -1.57208332671250
H           -1.73416527254929        1.60157536370831       -1.57500479852956
H           -0.68072844198063        1.45858630524354        0.85671947256208
H           -2.27140948228547        0.01975271266543        2.35329206673013
C           -2.64366643543689       -1.34129002024744       -0.74504430869350
C           -2.05272810435480       -1.43977826545835        0.68382914937767
C           -0.56233609644181       -1.77547379980260        0.51363120229253
C           -0.34892371317770       -1.75083741637346       -0.97008775022391
C           -1.46490476603285       -1.53731338909419       -1.64509367381552
H           -3.42610858788436       -2.07999595982903       -0.93945047530849
H           -2.55982312030911       -2.19835848130231        1.28225650972833
H           -0.32449434817505       -2.76368455678122        0.91624309224734
H            0.08204005573769       -1.05395005775215        1.01908775765798
H            0.62878249774416       -1.90799878815162       -1.39393585409697
H           -1.56060465479135       -1.48437947222282       -2.71611799775986
