 22
-27.417488 -27.433998 -27.500043
C -3.762160 0.247395 0.679850
C -3.391568 0.465749 -0.753048
C -2.161865 1.055783 -0.794050
C -1.556489 0.946863 0.475389
C -2.402346 0.263758 1.313518
H -4.359133 -0.637802 0.880803
H -4.332947 1.115238 1.032439
H -4.111711 0.460066 -1.552481
H -1.678446 1.450507 -1.670190
H -0.557859 1.274071 0.705221
H -2.258326 0.134050 2.373022
C -2.549827 -1.730050 -0.701964
C -2.054030 -1.804364 0.580878
C -0.554060 -1.880730 0.517294
C -0.282996 -1.665164 -0.936924
C -1.434259 -1.623971 -1.616002
H -3.542025 -1.997354 -1.015306
H -2.589313 -2.191836 1.429804
H -0.215401 -2.873036 0.832871
H -0.050582 -1.155511 1.152597
H 0.711590 -1.595640 -1.338362
H -1.547189 -1.503178 -2.678855

