14
 energy: -18.777965260619 gnorm: 0.000693722515 xtb: 6.5.1 (579679a)
C           -6.46542291070029        1.93009266436538        0.98347912258541
C           -5.99125539397782        2.60578101706699       -0.04519655967095
C           -4.67893753755743        3.33871590594181       -0.06504490733528
O           -3.84767426190049        3.10688935442536        1.05015638168254
C           -3.19107926127520        1.92446008469698        1.11929365879252
C           -3.24875281210432        0.88910581619523        0.29745903853570
H           -7.41926484682167        1.43285016609723        0.94420922079119
H           -5.91567588972203        1.84744624973463        1.90617513453701
H           -6.55089378048578        2.69038580535997       -0.96788103408457
H           -4.87310755816520        4.41831345399905       -0.05353177505498
H           -4.13968444612572        3.10312828189928       -0.99444966530428
H           -2.54907540390007        1.92685153572788        1.99087533386137
H           -3.88988020263412        0.85385312020482       -0.56461210539439
H           -2.64405569462977        0.02205654428530        0.48393815605872
