14
Coordinates from ORCA-job OPT_Ar-4 E -270.020327288628
  C       3.499510    -16.976810     -3.084050
  C       2.248080    -17.136770     -2.643460
  C       4.279750    -15.731680     -3.236990
  C       3.924390    -14.468470     -2.972790
  C       2.648490    -13.946550     -2.450780
  C       1.540080    -14.616390     -2.116700
  C       1.281730    -16.089610     -2.178820
  H       4.675280    -13.705220     -3.166220
  H       2.613210    -12.867660     -2.323210
  H       0.712220    -14.015610     -1.750140
  H       0.278740    -16.439220     -1.849240
  H       1.872880    -18.157640     -2.614780
  H       4.025570    -17.883580     -3.372780
  H       5.287090    -15.874850     -3.620540
14
Coordinates from ORCA-job OPT_Ar-4 E -270.047507624268
  C       3.500396    -16.933462     -3.079894
  C       2.223169    -17.076366     -2.627955
  C       4.269198    -15.745749     -3.234914
  C       3.909037    -14.464874     -2.966744
  C       2.669787    -13.981224     -2.462208
  C       1.548877    -14.680395     -2.126987
  C       1.323292    -16.074905     -2.192655
  H       4.649500    -13.697076     -3.155710
  H       2.624881    -12.906704     -2.331341
  H       0.708716    -14.104515     -1.758472
  H       0.346592    -16.416283     -1.871455
  H       1.827189    -18.083902     -2.589888
  H       4.015803    -17.842916     -3.364816
  H       5.270582    -15.901690     -3.617460
14
Coordinates from ORCA-job OPT_Ar-4 E -270.051014185217
  C       3.507893    -16.916095     -3.080858
  C       2.211231    -17.051972     -2.620821
  C       4.261029    -15.760297     -3.234050
  C       3.895080    -14.458389     -2.960842
  C       2.683979    -13.990458     -2.468337
  C       1.550428    -14.706790     -2.131009
  C       1.341296    -16.068506     -2.199009
  H       4.637180    -13.692654     -3.150266
  H       2.631729    -12.916830     -2.334103
  H       0.708686    -14.133204     -1.761911
  H       0.365737    -16.410295     -1.877682
  H       1.814300    -18.059237     -2.581805
  H       4.015990    -17.830206     -3.363361
  H       5.262460    -15.915128     -3.616448
14
Coordinates from ORCA-job OPT_Ar-4 E -270.051456438309
  C       3.511544    -16.922502     -3.082981
  C       2.211396    -17.060925     -2.621665
  C       4.262367    -15.762603     -3.235099
  C       3.894825    -14.455501     -2.960295
  C       2.683827    -13.983123     -2.467293
  C       1.545870    -14.699287     -2.128767
  C       1.335244    -16.070475     -2.197010
  H       4.641436    -13.694616     -3.151684
  H       2.629681    -12.909744     -2.332225
  H       0.707760    -14.119972     -1.760673
  H       0.359613    -16.412205     -1.875837
  H       1.820883    -18.070665     -2.584809
  H       4.017666    -17.837847     -3.364787
  H       5.264908    -15.910594     -3.617374
14
Coordinates from ORCA-job OPT_Ar-4 E -270.051534261372
  C       3.513371    -16.924811     -3.083909
  C       2.210717    -17.062416     -2.621341
  C       4.262639    -15.764324     -3.235583
  C       3.894084    -14.453905     -2.959697
  C       2.684124    -13.980177     -2.466927
  C       1.544282    -14.698318     -2.128369
  C       1.334313    -16.070707     -2.196753
  H       4.645425    -13.698059     -3.153133
  H       2.625346    -12.907271     -2.329967
  H       0.708634    -14.115184     -1.761117
  H       0.358068    -16.412752     -1.875299
  H       1.824707    -18.073840     -2.586038
  H       4.015040    -17.842974     -3.364499
  H       5.266270    -15.905323     -3.617870
14
Coordinates from ORCA-job OPT_Ar-4 E -270.051549314123
  C       3.513745    -16.925311     -3.084164
  C       2.210656    -17.061964     -2.621049
  C       4.262239    -15.764816     -3.235639
  C       3.893507    -14.453803     -2.959354
  C       2.684138    -13.979545     -2.466778
  C       1.544259    -14.698647     -2.128542
  C       1.334403    -16.070646     -2.196677
  H       4.647808    -13.701211     -3.154023
  H       2.622296    -12.906987     -2.328609
  H       0.709861    -14.113398     -1.761811
  H       0.358042    -16.412748     -1.875425
  H       1.827091    -18.074356     -2.586541
  H       4.012475    -17.845278     -3.363982
  H       5.266501    -15.901351     -3.617905
14
Coordinates from ORCA-job OPT_Ar-4 E -270.051551099901
  C       3.513641    -16.925197     -3.084152
  C       2.210771    -17.061418     -2.621015
  C       4.261938    -15.764763     -3.235577
  C       3.893307    -14.454068     -2.959239
  C       2.684107    -13.979692     -2.466764
  C       1.544543    -14.698979     -2.128855
  C       1.334373    -16.070609     -2.196854
  H       4.648595    -13.702555     -3.154270
  H       2.621339    -12.907261     -2.328139
  H       0.710465    -14.113141     -1.762243
  H       0.358201    -16.412767     -1.875201
  H       1.827878    -18.074098     -2.586637
  H       4.011456    -17.845724     -3.363708
  H       5.266408    -15.899788     -3.617847
14
Coordinates from ORCA-job OPT_Ar-4 E -270.051551204489
  C       3.513574    -16.925106     -3.084155
  C       2.210886    -17.061252     -2.620868
  C       4.261868    -15.764700     -3.235570
  C       3.893299    -14.454176     -2.959211
  C       2.684106    -13.979796     -2.466776
  C       1.544713    -14.699098     -2.128835
  C       1.334422    -16.070666     -2.196515
  H       4.648700    -13.702782     -3.154250
  H       2.621239    -12.907361     -2.328220
  H       0.710584    -14.113240     -1.762335
  H       0.358025    -16.412744     -1.875566
  H       1.827978    -18.073939     -2.586509
  H       4.011275    -17.845662     -3.363825
  H       5.266352    -15.899537     -3.617864
