22
 energy: -27.433998302464 gnorm: 0.000708821424 xtb: 6.5.1 (579679a)
C           -3.71949429967349        0.59346044382107        0.73433235482489
C           -3.39071064575164        0.96080028540798       -0.67411086001340
C           -2.12360930157069        1.38664088268189       -0.74074215637577
C           -1.53646313776849        1.34154290113354        0.58125887386280
C           -2.44511849133776        0.88605709857223        1.45298400299986
H           -3.99386687446880       -0.46017460041406        0.81728308937521
H           -4.55445093033264        1.17756705226258        1.12710167105607
H           -4.09505555948557        0.87404266593121       -1.48064839473378
H           -1.59729375685556        1.71571841852066       -1.61853227742938
H           -0.52483326552036        1.63692683009370        0.79679962990035
H           -2.32301851495606        0.73718223244103        2.51064083113268
C           -2.50931021910286       -2.54400394932897       -0.80374726243047
C           -2.01809710604122       -2.66674736942274        0.43589258719929
C           -0.62038815442208       -2.14472703896049        0.46970128802511
C           -0.39720968755516       -1.71923020234752       -0.94288451591666
C           -1.50246204376320       -1.95493427333549       -1.66025587364685
H           -3.48966261751791       -2.82954493384941       -1.14177541687482
H           -2.51337989546924       -3.06899230069173        1.30155339733743
H            0.09505229700701       -2.90614287634707        0.78846094502871
H           -0.52592480169138       -1.30187911754053        1.15786459100873
H            0.52527972089316       -1.28778997398762       -1.28473813539039
H           -1.65074271461597       -1.75039217464026       -2.70544836893985
