14
 energy: -18.777966806130 gnorm: 0.000485129495 xtb: 6.5.1 (579679a)
C           -7.97463752984461        1.19955626852457       -0.70312117661625
C           -7.67796142729384        1.88658202833487        0.38807284094034
H           -8.98272464152398        0.87193397329873       -0.87270686629156
H           -7.24739303833367        0.92815821162334       -1.44683717734035
O           -6.48752172266311        2.40370031474751        0.77490847902943
H           -8.42639863028961        2.12928856306041        1.13138177359717
C           -5.38850150809193        2.26757653227145       -0.09797021934981
C           -4.77185679362350        0.89746530907307       -0.14307597629154
H           -4.64201156562200        2.98032933523347        0.27369940338398
H           -5.67242843373353        2.57697173988198       -1.11498646216150
C           -5.08902370934110       -0.10496810067709        0.65282950313262
H           -4.00201079030990        0.79445385446537       -0.89645315637717
H           -5.85019711441709       -0.00723565879047        1.40896249379475
H           -4.60400309491217       -1.06286237104718        0.57850654054990
14
 energy: -18.789536397723 gnorm: 0.000296677004 xtb: 6.5.1 (579679a)
C           -7.40248741143421        0.49318915299113       -0.06794609261114
C           -8.04528408646573        1.71968395319421        0.51361251433173
O           -7.54339461611683        2.47770583310823        1.29206325848686
C           -4.40772340508210        2.37375103177549       -0.08033514012052
C           -5.13031336031801        1.39151961471354       -0.58193228315171
C           -5.90475546034689        0.40652155237776        0.23756689014256
H           -5.55431007174617       -0.60453308214569        0.01255777754761
H           -5.74583501852474        0.60438928665004        1.29822482259994
H           -7.93263668950443       -0.36671449137135        0.35400073637182
H           -7.58462361102761        0.48398172201000       -1.14556714739942
H           -9.08846778571356        1.86871596684020        0.16312779729296
H           -3.86965783070593        3.06466091823937       -0.70706015428724
H           -4.33134964796505        2.53119543096239        0.98247425129267
H           -5.20225100504872        1.25562311065459       -1.65455723049583
