14
 energy: -18.777968790134 gnorm: 0.000488038550 xtb: 6.5.1 (579679a)
C           -1.02034905522410        5.86786725965360       -3.31372306753605
C           -2.10557710024068        5.39303661042301       -2.73430454171526
C           -2.57093374005372        3.96574375946769       -2.80855731576453
O           -1.85223872948349        3.14724006303705       -3.70399445916517
C           -2.08317722931274        3.29852724353195       -5.02985347129975
C           -2.88032951106893        4.15599958971226       -5.64618781388530
H           -0.37999017197435        5.24214492729104       -3.91261648380194
H           -0.73086754834308        6.89978018022393       -3.21545351711933
H           -2.74264800758532        6.02628285332379       -2.13075575151137
H           -3.64407175097520        3.93993591994941       -3.04979303460081
H           -2.43610227703838        3.49641969548130       -1.82613782229400
H           -1.50079113149880        2.56773196792041       -5.57624635428382
H           -3.45576983450880        4.90386870649699       -5.13149548310361
H           -2.96617391269241        4.13411122348758       -6.71612088391911
