14
 energy: -18.777965260619 gnorm: 0.000693722515 xtb: 6.5.1 (579679a)
C           -6.46542291070029        1.93009266436538        0.98347912258541
C           -5.99125539397782        2.60578101706699       -0.04519655967095
C           -4.67893753755743        3.33871590594181       -0.06504490733528
O           -3.84767426190049        3.10688935442536        1.05015638168254
C           -3.19107926127520        1.92446008469698        1.11929365879252
C           -3.24875281210432        0.88910581619523        0.29745903853570
H           -7.41926484682167        1.43285016609723        0.94420922079119
H           -5.91567588972203        1.84744624973463        1.90617513453701
H           -6.55089378048578        2.69038580535997       -0.96788103408457
H           -4.87310755816520        4.41831345399905       -0.05353177505498
H           -4.13968444612572        3.10312828189928       -0.99444966530428
H           -2.54907540390007        1.92685153572788        1.99087533386137
H           -3.88988020263412        0.85385312020482       -0.56461210539439
H           -2.64405569462977        0.02205654428530        0.48393815605872
14
 energy: -18.790406075908 gnorm: 0.000824648564 xtb: 6.5.1 (579679a)
C           -5.51204884105797        1.56144762581944        0.61989073082181
C           -5.44032473724879        2.60334596582089       -0.45289833292825
C           -5.56981016247767        3.89951352599546       -0.24558780287813
O           -1.95126986339103        1.52734783420345        0.50199781630215
C           -3.03539071391171        1.60706542688266        1.00573862639442
C           -4.21682040683756        0.74349785602901        0.67349169573333
H           -6.34472979673708        0.88428285176563        0.41105471019233
H           -5.69184720637339        2.03480281866287        1.58716690249088
H           -5.25813279234763        2.22508512171714       -1.45026341475208
H           -5.75052390892667        4.30284551471459        0.73773893173302
H           -5.50732383241895        4.61459620657160       -1.04765828875997
H           -3.24525236442638        2.35588422887416        1.79595220537922
H           -4.03542128224569        0.22912312925488       -0.27188674839160
H           -4.29508409159967       -0.01032810631178        1.46284296866278
