10
Coordinates from ORCA-job Acetone E -192.740594138183
  C      -7.119780      1.397160     -0.000000
  C      -5.855470      2.204540      0.000000
  C      -4.505940      1.549490      0.000000
  O      -5.926520      3.423640      0.000000
  H      -6.905940      0.307950     -0.000000
  H      -7.715600      1.640870     -0.904460
  H      -7.715600      1.640870      0.904450
  H      -4.591800      0.442810      0.000000
  H      -3.942460      1.860760      0.904460
  H      -3.942460      1.860760     -0.904450
10
Coordinates from ORCA-job Acetone E -192.742942607524
  C      -7.113851      1.391952     -0.000001
  C      -5.856355      2.219628      0.000000
  C      -4.511072      1.543555      0.000001
  O      -5.927121      3.433556      0.000000
  H      -6.909728      0.323482      0.000001
  H      -7.707241      1.629993     -0.882862
  H      -7.707247      1.629997      0.882855
  H      -4.589880      0.458675     -0.000001
  H      -3.949541      1.849004      0.882873
  H      -3.949535      1.849008     -0.882866
10
Coordinates from ORCA-job Acetone E -192.743143697386
  C      -7.109363      1.389646     -0.000001
  C      -5.856935      2.229507      0.000000
  C      -4.515154      1.540696      0.000001
  O      -5.927502      3.440284     -0.000001
  H      -6.905761      0.322702      0.000002
  H      -7.708028      1.627569     -0.879043
  H      -7.708034      1.627574      0.879035
  H      -4.593784      0.457404     -0.000002
  H      -3.948507      1.846731      0.879099
  H      -3.948501      1.846738     -0.879091
10
Coordinates from ORCA-job Acetone E -192.743190029363
  C      -7.106075      1.388256     -0.000001
  C      -5.857291      2.235576     -0.000002
  C      -4.518166      1.538893      0.000001
  O      -5.927715      3.444578     -0.000002
  H      -6.901411      0.320996      0.000003
  H      -7.709974      1.626617     -0.877133
  H      -7.709978      1.626624      0.877127
  H      -4.597948      0.455200     -0.000005
  H      -3.946511      1.846050      0.877236
  H      -3.946502      1.846060     -0.877225
10
Coordinates from ORCA-job Acetone E -192.743191794352
  C      -7.105847      1.388178     -0.000000
  C      -5.857286      2.235493      0.000001
  C      -4.518363      1.538782      0.000001
  O      -5.927701      3.444609     -0.000004
  H      -6.900786      0.320922      0.000004
  H      -7.710637      1.626689     -0.876696
  H      -7.710644      1.626696      0.876689
  H      -4.598565      0.455054     -0.000006
  H      -3.945875      1.846207      0.876815
  H      -3.945868      1.846219     -0.876804
10
Coordinates from ORCA-job Acetone E -192.743192435025
  C      -7.105751      1.388171     -0.000001
  C      -5.857263      2.235131     -0.000010
  C      -4.518438      1.538758     -0.000000
  O      -5.927673      3.444418     -0.000003
  H      -6.900425      0.320958      0.000005
  H      -7.711200      1.626790     -0.876247
  H      -7.711196      1.626801      0.876246
  H      -4.598928      0.455045     -0.000010
  H      -3.945359      1.846381      0.876389
  H      -3.945338      1.846397     -0.876370
