6
Coordinates from ORCA-job OPT_Ar-1 E -115.202552414181
  C      -4.959430     -4.772710     -7.196670
  C      -3.696380     -4.606560     -6.377750
  C      -5.032180     -4.809160     -5.684430
  H      -3.425850     -3.529760     -6.330840
  H      -4.990130     -5.819920     -7.561350
  H      -5.395830     -3.828480     -5.309040
6
Coordinates from ORCA-job OPT_Ar-1 E -115.248796881778
  C      -4.948106     -4.808668     -7.185291
  C      -3.725656     -4.577752     -6.382829
  C      -5.026993     -4.775083     -5.707355
  H      -3.385034     -3.528864     -6.325050
  H      -5.000262     -5.839773     -7.586797
  H      -5.413749     -3.836450     -5.272758
6
Coordinates from ORCA-job OPT_Ar-1 E -115.288532699417
  C      -4.934616     -4.839183     -7.168142
  C      -3.755711     -4.551092     -6.389328
  C      -5.021994     -4.743070     -5.731989
  H      -3.348420     -3.533713     -6.324332
  H      -5.006950     -5.849950     -7.602779
  H      -5.432109     -3.849583     -5.243511
6
Coordinates from ORCA-job OPT_Ar-1 E -115.321575613527
  C      -4.921994     -4.869503     -7.152565
  C      -3.780421     -4.522579     -6.397072
  C      -5.021328     -4.710705     -5.752898
  H      -3.308583     -3.539360     -6.325958
  H      -5.013527     -5.859905     -7.618415
  H      -5.453947     -3.864539     -5.213173
6
Coordinates from ORCA-job OPT_Ar-1 E -115.348952024678
  C      -4.910945     -4.899887     -7.140058
  C      -3.799306     -4.492238     -6.406411
  C      -5.025585     -4.678127     -5.769843
  H      -3.266944     -3.545375     -6.328201
  H      -5.019853     -5.870608     -7.633788
  H      -5.477166     -3.880356     -5.181779
6
Coordinates from ORCA-job OPT_Ar-1 E -115.371521224042
  C      -4.901109     -4.928937     -7.129536
  C      -3.814393     -4.461583     -6.417505
  C      -5.033426     -4.646323     -5.784678
  H      -3.227031     -3.552052     -6.329543
  H      -5.025291     -5.881403     -7.647517
  H      -5.498550     -3.896291     -5.151302
6
Coordinates from ORCA-job OPT_Ar-1 E -115.389823006931
  C      -4.891934     -4.955581     -7.119557
  C      -3.827579     -4.432001     -6.430016
  C      -5.043166     -4.616209     -5.798922
  H      -3.191571     -3.559595     -6.329200
  H      -5.029602     -5.891392     -7.658816
  H      -5.515947     -3.911812     -5.123569
6
Coordinates from ORCA-job OPT_Ar-1 E -115.404324532705
  C      -4.883115     -4.979632     -7.109441
  C      -3.839518     -4.404512     -6.443106
  C      -5.053505     -4.588535     -5.812731
  H      -3.161960     -3.567669     -6.327131
  H      -5.033049     -5.899987     -7.668020
  H      -5.528653     -3.926256     -5.099651
6
Coordinates from ORCA-job OPT_Ar-1 E -115.415524916804
  C      -4.874439     -5.001279     -7.098871
  C      -3.849957     -4.380138     -6.455465
  C      -5.063308     -4.564112     -5.825226
  H      -3.138385     -3.575555     -6.324375
  H      -5.036139     -5.906517     -7.676005
  H      -5.537572     -3.938988     -5.080138
6
Coordinates from ORCA-job OPT_Ar-1 E -115.424014940552
  C      -4.865682     -5.020452     -7.087434
  C      -3.858126     -4.360007     -6.465144
  C      -5.071199     -4.543923     -5.834833
  H      -3.119848     -3.582502     -6.323512
  H      -5.039455     -5.909859     -7.683553
  H      -5.545491     -3.949848     -5.065602
6
Coordinates from ORCA-job OPT_Ar-1 E -115.430543856887
  C      -4.856736     -5.036628     -7.074786
  C      -3.863127     -4.344906     -6.469794
  C      -5.075613     -4.528667     -5.839636
  H      -3.104025     -3.588125     -6.328449
  H      -5.043408     -5.908715     -7.690957
  H      -5.556891     -3.959549     -5.056459
6
Coordinates from ORCA-job OPT_Ar-1 E -115.435952165995
  C      -4.847733     -5.049160     -7.060990
  C      -3.864752     -4.334237     -6.467984
  C      -5.075649     -4.517656     -5.838587
  H      -3.087870     -3.593065     -6.342493
  H      -5.047854     -5.902607     -7.697704
  H      -5.575941     -3.969865     -5.052322
6
Coordinates from ORCA-job OPT_Ar-1 E -115.440874932594
  C      -4.838864     -5.057741     -7.046324
  C      -3.863887     -4.325738     -6.460288
  C      -5.071832     -4.508562     -5.832428
  H      -3.069039     -3.599109     -6.366412
  H      -5.052064     -5.892291     -7.702662
  H      -5.604115     -3.983148     -5.051967
6
Coordinates from ORCA-job OPT_Ar-1 E -115.445534063575
  C      -4.830165     -5.062267     -7.030836
  C      -3.861775     -4.316677     -6.448481
  C      -5.065595     -4.498682     -5.822828
  H      -3.046550     -3.608457     -6.399121
  H      -5.055181     -5.878934     -7.704616
  H      -5.640535     -4.001572     -5.054198
6
Coordinates from ORCA-job OPT_Ar-1 E -115.449795929728
  C      -4.821586     -5.062895     -7.014506
  C      -3.859581     -4.304725     -6.435022
  C      -5.058877     -4.485841     -5.811862
  H      -3.020787     -3.622900     -6.438010
  H      -5.056518     -5.863839     -7.702711
  H      -5.682452     -4.026390     -5.057968
6
Coordinates from ORCA-job OPT_Ar-1 E -115.453386138702
  C      -4.813147     -5.061095     -6.997835
  C      -3.858463     -4.288613     -6.423129
  C      -5.053901     -4.469016     -5.802188
  H      -2.993793     -3.642465     -6.477727
  H      -5.056034     -5.848940     -7.697413
  H      -5.724462     -4.056460     -5.061788
6
Coordinates from ORCA-job OPT_Ar-1 E -115.456142844283
  C      -4.804971     -5.059251     -6.981719
  C      -3.859258     -4.269048     -6.415427
  C      -5.052055     -4.449015     -5.796072
  H      -2.968448     -3.664954     -6.512163
  H      -5.054424     -5.836041     -7.690490
  H      -5.760644     -4.088281     -5.064209
6
Coordinates from ORCA-job OPT_Ar-1 E -115.458123975584
  C      -4.797351     -5.059867     -6.967348
  C      -3.862378     -4.248534     -6.413531
  C      -5.053827     -4.428316     -5.795036
  H      -2.947579     -3.686526     -6.535919
  H      -5.052665     -5.826533     -7.684370
  H      -5.786000     -4.116814     -5.063877
6
Coordinates from ORCA-job OPT_Ar-1 E -115.459575360046
  C      -4.790846     -5.065049     -6.956338
  C      -3.867915     -4.230391     -6.418272
  C      -5.059083     -4.410186     -5.800029
  H      -2.933451     -3.702668     -6.544520
  H      -5.051759     -5.821721     -7.681550
  H      -5.796746     -4.136575     -5.059371
6
Coordinates from ORCA-job OPT_Ar-1 E -115.460682304850
  C      -4.786046     -5.075435     -6.950061
  C      -3.875619     -4.217033     -6.429488
  C      -5.067126     -4.396924     -5.811096
  H      -2.927153     -3.710453     -6.535950
  H      -5.052426     -5.822373     -7.683347
  H      -5.791429     -4.144372     -5.050139
6
Coordinates from ORCA-job OPT_Ar-1 E -115.461277863186
  C      -4.782524     -5.088653     -6.947080
  C      -3.884435     -4.207380     -6.444205
  C      -5.076301     -4.387311     -5.825518
  H      -2.926670     -3.712664     -6.516550
  H      -5.054220     -5.826343     -7.688036
  H      -5.775650     -4.144237     -5.038690
6
Coordinates from ORCA-job OPT_Ar-1 E -115.461330731816
  C      -4.781528     -5.093852     -6.946659
  C      -3.887685     -4.204626     -6.449958
  C      -5.079703     -4.384557     -5.831091
  H      -2.927622     -3.712457     -6.507778
  H      -5.055079     -5.828335     -7.690265
  H      -5.768183     -4.142762     -5.034329
6
Coordinates from ORCA-job OPT_Ar-1 E -115.461331346855
  C      -4.781620     -5.094233     -6.946937
  C      -3.887844     -4.204833     -6.450393
  C      -5.079877     -4.384767     -5.831480
  H      -2.928031     -3.711986     -6.506692
  H      -5.055210     -5.828675     -7.690588
  H      -5.767217     -4.142096     -5.033990
