3
Coordinates from ORCA-job H2O E -76.267282252848
  O      -5.368410      1.447800      0.024060
  H      -4.379090      1.462520     -0.016190
  H      -5.657780      1.773040     -0.865370
3
Coordinates from ORCA-job H2O E -76.269012818504
  O      -5.362915      1.450449      0.016816
  H      -4.406758      1.467242     -0.029103
  H      -5.635607      1.765669     -0.845213
3
Coordinates from ORCA-job H2O E -76.269028449538
  O      -5.363079      1.450367      0.017039
  H      -4.403998      1.466632     -0.027435
  H      -5.638202      1.766361     -0.847104
3
Coordinates from ORCA-job H2O E -76.269028882889
  O      -5.362873      1.450468      0.016764
  H      -4.404060      1.466571     -0.027269
  H      -5.638348      1.766321     -0.846995
3
Coordinates from ORCA-job H2O E -76.269028966686
  O      -5.362726      1.450539      0.016570
  H      -4.403981      1.466499     -0.027072
  H      -5.638572      1.766322     -0.846998
