 14
-18.714914 -18.764534 -18.778002
C -2.002199 5.666647 -3.753950
C -2.656197 5.163532 -2.519730
C -3.627179 4.088621 -2.609378
O -3.348168 3.089171 -3.652650
C -2.941534 3.576840 -4.815463
C -2.579377 5.003825 -5.005089
H -0.928426 5.442227 -3.719544
H -2.075480 6.762299 -3.841001
H -2.318343 5.504659 -1.560496
H -4.616572 4.441460 -2.928465
H -3.741614 3.535997 -1.674621
H -3.307086 3.025083 -5.674308
H -3.500818 5.542337 -5.278812
H -1.897380 5.106373 -5.852465

