17
Coordinates from ORCA-job TMS E -448.486836303171
  Si     -2.021649      1.206859     -0.015212
  C      -0.732782      2.580156      0.092370
  C      -3.751758      1.958344      0.028180
  C      -1.794206      0.255500     -1.628361
  C      -1.804144      0.031746      1.444182
  H      -0.823842      3.281748     -0.738348
  H       0.282011      2.179231      0.069231
  H      -0.833458      3.154736      1.014820
  H      -3.904862      2.660284     -0.793373
  H      -3.930575      2.502469      0.957048
  H      -4.524193      1.191803     -0.052912
  H      -1.905332      0.907662     -2.496451
  H      -2.527838     -0.545909     -1.729549
  H      -0.804785     -0.200759     -1.690538
  H      -1.932107      0.546573      2.397742
  H      -0.810588     -0.419713      1.450133
  H      -2.529283     -0.783590      1.415918
17
Coordinates from ORCA-job TMS E -448.486851618925
  Si     -2.021699      1.206789     -0.015173
  C      -0.732841      2.579822      0.092426
  C      -3.751539      1.958382      0.028177
  C      -1.794444      0.255674     -1.628272
  C      -1.804064      0.031792      1.444043
  H      -0.824461      3.280520     -0.739669
  H       0.281865      2.177188      0.070083
  H      -0.835334      3.154302      1.015346
  H      -3.903154      2.660260     -0.794389
  H      -3.929047      2.502583      0.957863
  H      -4.523354      1.190488     -0.052920
  H      -1.906502      0.909343     -2.495768
  H      -2.528799     -0.545984     -1.727826
  H      -0.804068     -0.199846     -1.689593
  H      -1.933239      0.548001      2.397263
  H      -0.809277     -0.418176      1.449140
  H      -2.529431     -0.783998      1.414149
17
Coordinates from ORCA-job TMS E -448.486859926842
  Si     -2.021789      1.206665     -0.015116
  C      -0.732795      2.579469      0.092561
  C      -3.751422      1.958523      0.028138
  C      -1.794789      0.255813     -1.628333
  C      -1.803897      0.031729      1.444014
  H      -0.825180      3.278484     -0.740952
  H       0.281127      2.174621      0.071352
  H      -0.837840      3.153393      1.015629
  H      -3.900729      2.659832     -0.795427
  H      -3.926944      2.502542      0.958383
  H      -4.521878      1.189166     -0.052916
  H      -1.908133      0.911282     -2.494390
  H      -2.529747     -0.545689     -1.725471
  H      -0.803660     -0.198377     -1.688413
  H      -1.934683      0.549670      2.396148
  H      -0.807927     -0.415779      1.447804
  H      -2.529103     -0.784205      1.411870
17
Coordinates from ORCA-job TMS E -448.486860493976
  Si     -2.021825      1.206620     -0.015103
  C      -0.732671      2.579515      0.092645
  C      -3.751585      1.958629      0.028090
  C      -1.794860      0.255736     -1.628519
  C      -1.803813      0.031602      1.444173
  H      -0.825221      3.278165     -0.740977
  H       0.280948      2.174278      0.071607
  H      -0.838182      3.153174      1.015667
  H      -3.900348      2.659688     -0.795610
  H      -3.926704      2.502589      0.958281
  H      -4.521680      1.189102     -0.052948
  H      -1.908452      0.911510     -2.494138
  H      -2.529852     -0.545612     -1.725172
  H      -0.803727     -0.198145     -1.688371
  H      -1.934832      0.549875      2.395945
  H      -0.807724     -0.415322      1.447631
  H      -2.528862     -0.784263      1.411679
